$ NASTRAN input file created by the Patran 2014.1 64-Bit input file
$ translator on May       04, 2019 at 19:06:02.
$ Direct Text Input for Nastran System Cell Section
$ Direct Text Input for File Management Section
$ Direct Text Input for Executive Control
$ Design Sensitivity and Optimization Analysis
SOL 200
TIME 6000
CEND
$ Direct Text Input for Global Case Control Data
TITLE = MSC.Nastran job created on 14-Jul-17 at 22:38:52
ECHO = NONE
MAXLINES = 999999999
DESOBJ(MIN) = 1
SUBCASE 1
$ Subcase name : Default
   SUBTITLE=Default
   SPC = 2
   LOAD = 2
   DISPLACEMENT(SORT1,REAL)=ALL
   SPCFORCES(SORT1,REAL)=ALL
   STRESS(SORT1,REAL,VONMISES,BILIN)=ALL
   ANALYSIS = STATICS
   DESSUB = 22
$ Direct Text Input for this Subcase
SUBCASE 2
$ Subcase name : Default
   SUBTITLE=Default
   SPC = 2
   LOAD = 7
   DISPLACEMENT(SORT1,REAL)=ALL
   SPCFORCES(SORT1,REAL)=ALL
   ANALYSIS = STATICS
SUBCASE 3
$ Subcase name : Default
   SUBTITLE=Default
   SPC = 2
   METHOD = 1
   VECTOR(SORT1,REAL)=ALL
   SPCFORCES(SORT1,REAL)=ALL
   STATSUB = 2
   ANALYSIS = BUCK
   DESSUB = 23
$ Direct Text Input for this Subcase
BEGIN BULK
$ Direct Text Input for Bulk Data
MDLPRM,OFFDEF,1
PARAM, GRDPNT, 0
PARAM    POST    0
PARAM   PRTMAXIM YES
EIGRL    1       0.              1       0
$ Elements and Element Properties for region : beam
PBARL    1       1               BAR
*       .00543962       .04
*
$ Pset: "beam" will be imported as: "pbarl.1"
CBAR     39167   1       89      653     0.     -1.      0.
                         0.     .0231281 0.      0.     .0231281 0.
CBAR     39168   1       653     654     0.     -1.      0.
                         0.     .0231281 0.      0.     .0231281 0.
CBAR     39169   1       654     655     0.     -1.      0.
                         0.     .0231281 0.      0.     .0231281 0.
CBAR     39170   1       655     656     0.     -1.      0.
                         0.     .0231281 0.      0.     .0231281 0.
CBAR     39171   1       656     657     0.     -1.      0.
                         0.     .0231281 0.      0.     .0231281 0.
CBAR     39172   1       657     658     0.     -1.      0.
                         0.     .0231281 0.      0.     .0231281 0.
CBAR     39173   1       658     659     0.     -1.      0.
                         0.     .0231281 0.      0.     .0231281 0.
CBAR     39174   1       659     660     0.     -1.      0.
                         0.     .0231281 0.      0.     .0231281 0.
CBAR     39175   1       660     661     0.     -1.      0.
                         0.     .0231281 0.      0.     .0231281 0.
CBAR     39176   1       661     662     0.     -1.      0.
                         0.     .0231281 0.      0.     .0231281 0.
CBAR     39177   1       662     663     0.     -1.      0.
                         0.     .0231281 0.      0.     .0231281 0.
CBAR     39178   1       663     664     0.     -1.      0.
                         0.     .0231281 0.      0.     .0231281 0.
CBAR     39179   1       664     665     0.     -1.      0.
                         0.     .0231281 0.      0.     .0231281 0.
CBAR     39180   1       665     666     0.     -1.      0.
                         0.     .0231281 0.      0.     .0231281 0.
CBAR     39181   1       666     667     0.     -1.      0.
                         0.     .0231281 0.      0.     .0231281 0.
CBAR     39182   1       667     668     0.     -1.      0.
                         0.     .0231281 0.      0.     .0231281 0.
CBAR     39183   1       668     669     0.     -1.      0.
                         0.     .0231281 0.      0.     .0231281 0.
CBAR     39184   1       669     670     0.     -1.      0.
                         0.     .0231281 0.      0.     .0231281 0.
CBAR     39185   1       670     671     0.     -1.      0.
                         0.     .0231281 0.      0.     .0231281 0.
CBAR     39186   1       671     672     0.     -1.      0.
                         0.     .0231281 0.      0.     .0231281 0.
$ ... 456 like lines cut
$ Elements and Element Properties for region : shell
PSHELL*  2               1              .00625616        1
*                        1
$ Pset: "shell" will be imported as: "pshell.2"
CTRIA3   1       2       349     652     348
CTRIA3   2       2       350     1109    349
CTRIA3   3       2       351     775     350
CTRIA3   4       2       352     776     351
CTRIA3   5       2       353     777     352
CTRIA3   6       2       354     778     353
CTRIA3   7       2       355     779     354
CTRIA3   8       2       356     780     355
CTRIA3   9       2       357     781     356
CTRIA3   10      2       358     782     357
CTRIA3   11      2       359     783     358
CTRIA3   12      2       360     784     359
CTRIA3   13      2       361     785     360
CTRIA3   14      2       362     786     361
CTRIA3   15      2       363     787     362
CTRIA3   16      2       364     788     363
CTRIA3   17      2       365     789     364
CTRIA3   18      2       366     790     365
CTRIA3   19      2       367     791     366
CTRIA3   20      2       368     792     367
$ ... 39146 like lines cut
$ Referenced Material Records
$ Material Record : material
$ Description of Material : Date: 28-Jun-17           Time: 15:55:11
MAT1*    1              7.3085+10                       .3
*       2700.
$ Nodes of the Entire Model
GRID*    1                              .355599999427795 0.
*        0.
GRID*    2                              -.35559999942779 0.
*        0.
GRID*    3                              .350651949644089 0.
*        0.
GRID*    4                              .345703899860382 0.
*        0.
GRID*    5                              .340755850076675 0.
*        0.
GRID*    6                              .335807800292969 0.
*        0.
GRID*    7                              .330859750509262 0.
*        0.
GRID*    8                              .325911700725555 0.
*        0.
GRID*    9                              .320963650941849 0.
*        0.
GRID*    10                             .316015601158142 0.
*        0.
GRID*    11                             .311067551374435 0.
*        0.
GRID*    12                             .306119531393051 0.
*        0.
GRID*    13                             .301171481609345 0.
*        0.
GRID*    14                             .296223431825638 0.
*        0.
GRID*    15                             .291275382041931 0.
*        0.
GRID*    16                             .286327332258225 0.
*        0.
GRID*    17                             .281379282474518 0.
*        0.
GRID*    18                             .276431232690811 0.
*        0.
GRID*    19                             .271483182907105 0.
*        0.
GRID*    20                             .266535133123398 0.
*        0.
$ ... 39656 like lines cut
$ Loads for Load Case : Default
SPCADD   2       5       7       8
LOAD     2      1.      1.       6      1.       8      1.       9
        1.       10
$ Displacement Constraints of Load Set : disp
SPC1     5       2       1       THRU    528
$ Displacement Constraints of Load Set : disppt1
SPC1     7       1       2
SPC1     7       1       144     THRU    265
$ Displacement Constraints of Load Set : disppt2
SPC1     8       3       1       THRU    143
$ Loads for Load Case : Default
LOAD     7      1.      1.       6      1.       8      1.       9
        1.       10
$ Pressure Loads of Load Set : edge_pressure
FORCE    6       408            689.122 -1.      0.      0.
FORCE    6       266            689.122 -1.      0.      0.
FORCE    6       409            689.122 -1.      0.      0.
FORCE    6       408            689.122 -1.      0.      0.
FORCE    6       410            689.122 -1.      0.      0.
FORCE    6       409            689.122 -1.      0.      0.
FORCE    6       411            689.122 -1.      0.      0.
FORCE    6       410            689.122 -1.      0.      0.
FORCE    6       412            689.122 -1.      0.      0.
FORCE    6       411            689.122 -1.      0.      0.
FORCE    6       413            689.131 -1.      0.      0.
FORCE    6       412            689.13  -1.      0.      0.
FORCE    6       414            689.122 -1.      0.      0.
FORCE    6       413            689.122 -1.      0.      0.
FORCE    6       415            689.122 -1.      0.      0.
FORCE    6       414            689.122 -1.      0.      0.
FORCE    6       416            689.122 -1.      0.      0.
FORCE    6       415            689.122 -1.      0.      0.
FORCE    6       417            689.122 -1.      0.      0.
FORCE    6       416            689.122 -1.      0.      0.
$ ... 468 like lines cut
$ Force or value sum: 336291.934021
$ Pressure Loads of Load Set : edge_pressure2
FORCE    8       349            1252.64  0.      0.     -1.
FORCE    8       348            1252.64  0.      0.     -1.
FORCE    8       350            1252.63  0.      0.     -1.
FORCE    8       349            1252.63  0.      0.     -1.
FORCE    8       351            1252.64  0.      0.     -1.
FORCE    8       350            1252.64  0.      0.     -1.
FORCE    8       352            1252.64  0.      0.     -1.
FORCE    8       351            1252.64  0.      0.     -1.
FORCE    8       353            1252.63  0.      0.     -1.
FORCE    8       352            1252.63  0.      0.     -1.
FORCE    8       354            1252.64  0.      0.     -1.
FORCE    8       353            1252.64  0.      0.     -1.
FORCE    8       355            1252.64  0.      0.     -1.
FORCE    8       354            1252.64  0.      0.     -1.
FORCE    8       356            1252.64  0.      0.     -1.
FORCE    8       355            1252.64  0.      0.     -1.
FORCE    8       357            1252.63  0.      0.     -1.
FORCE    8       356            1252.63  0.      0.     -1.
FORCE    8       358            1252.64  0.      0.     -1.
FORCE    8       357            1252.64  0.      0.     -1.
$ ... 548 like lines cut
$ Force or value sum: 706213.072632
$ Distributed Loads of Load Set : shearload
FORCE    9       349             0.      0.      0.      0.
FORCE    9       348             0.      0.      0.      0.
FORCE    9       350             0.      0.      0.      0.
FORCE    9       349             0.      0.      0.      0.
FORCE    9       351             0.      0.      0.      0.
FORCE    9       350             0.      0.      0.      0.
FORCE    9       352             0.      0.      0.      0.
FORCE    9       351             0.      0.      0.      0.
FORCE    9       353             0.      0.      0.      0.
FORCE    9       352             0.      0.      0.      0.
FORCE    9       354             0.      0.      0.      0.
FORCE    9       353             0.      0.      0.      0.
FORCE    9       355             0.      0.      0.      0.
FORCE    9       354             0.      0.      0.      0.
FORCE    9       356             0.      0.      0.      0.
FORCE    9       355             0.      0.      0.      0.
FORCE    9       357             0.      0.      0.      0.
FORCE    9       356             0.      0.      0.      0.
FORCE    9       358             0.      0.      0.      0.
FORCE    9       357             0.      0.      0.      0.
$ ... 548 like lines cut
$ Distributed Loads of Load Set : shearload2
FORCE    10      408             0.      0.      0.      0.
FORCE    10      266             0.      0.      0.      0.
FORCE    10      409             0.      0.      0.      0.
FORCE    10      408             0.      0.      0.      0.
FORCE    10      410             0.      0.      0.      0.
FORCE    10      409             0.      0.      0.      0.
FORCE    10      411             0.      0.      0.      0.
FORCE    10      410             0.      0.      0.      0.
FORCE    10      412             0.      0.      0.      0.
FORCE    10      411             0.      0.      0.      0.
FORCE    10      413             0.      0.      0.      0.
FORCE    10      412             0.      0.      0.      0.
FORCE    10      414             0.      0.      0.      0.
FORCE    10      413             0.      0.      0.      0.
FORCE    10      415             0.      0.      0.      0.
FORCE    10      414             0.      0.      0.      0.
FORCE    10      416             0.      0.      0.      0.
FORCE    10      415             0.      0.      0.      0.
FORCE    10      417             0.      0.      0.      0.
FORCE    10      416             0.      0.      0.      0.
$ ... 468 like lines cut
$ ...DESIGN VARIABLE DEFINITION
$ box_H
DESVAR   1       box_H:1.04     .008    .04     .5
$ box_W
DESVAR*  2               box_W:2        .00543962       .001
*       .04             .5
$ shellTh
DESVAR*  3               shellTh:3      .00625616       .001
*       .04             .5
$ bmc1OfN1
DESVAR   4      bmc1OfN1.0231281                .5
$ bmc1OfN2
DESVAR   5      bmc1OfN2.0231281                .5
$ ...DEFINITION OF DESIGN VARIABLE TO ANALYSIS MODEL PARAMETER RELATIONS
DVPREL1  1       PBARL   1       DIM1
         2      1.
DVPREL1  2       PBARL   1       DIM2
         1      1.
DVPREL1  499     PSHELL  2       T
         3      1.
DVCREL1  3       CBAR    39167   W2A
         4      1.
DVCREL1  4       CBAR    39167   W2B
         5      1.
DVCREL1  5       CBAR    39168   W2A
         4      1.
DVCREL1  6       CBAR    39168   W2B
         5      1.
DVCREL1  7       CBAR    39169   W2A
         4      1.
DVCREL1  8       CBAR    39169   W2B
         5      1.
DVCREL1  9       CBAR    39170   W2A
         4      1.
DVCREL1  10      CBAR    39170   W2B
         5      1.
DVCREL1  11      CBAR    39171   W2A
         4      1.
DVCREL1  12      CBAR    39171   W2B
         5      1.
DVCREL1  13      CBAR    39172   W2A
         4      1.
DVCREL1  14      CBAR    39172   W2B
         5      1.
DVCREL1  15      CBAR    39173   W2A
         4      1.
DVCREL1  16      CBAR    39173   W2B
         5      1.
DVCREL1  17      CBAR    39174   W2A
         4      1.
DVCREL1  18      CBAR    39174   W2B
         5      1.
DVCREL1  19      CBAR    39175   W2A
         4      1.
DVCREL1  20      CBAR    39175   W2B
         5      1.
DVCREL1  21      CBAR    39176   W2A
         4      1.
DVCREL1  22      CBAR    39176   W2B
         5      1.
DVCREL1  23      CBAR    39177   W2A
         4      1.
DVCREL1  24      CBAR    39177   W2B
         5      1.
DVCREL1  25      CBAR    39178   W2A
         4      1.
DVCREL1  26      CBAR    39178   W2B
         5      1.
DVCREL1  27      CBAR    39179   W2A
         4      1.
DVCREL1  28      CBAR    39179   W2B
         5      1.
DVCREL1  29      CBAR    39180   W2A
         4      1.
DVCREL1  30      CBAR    39180   W2B
         5      1.
DVCREL1  31      CBAR    39181   W2A
         4      1.
DVCREL1  32      CBAR    39181   W2B
         5      1.
DVCREL1  33      CBAR    39182   W2A
         4      1.
DVCREL1  34      CBAR    39182   W2B
         5      1.
DVCREL1  35      CBAR    39183   W2A
         4      1.
DVCREL1  36      CBAR    39183   W2B
         5      1.
DVCREL1  37      CBAR    39184   W2A
         4      1.
DVCREL1  38      CBAR    39184   W2B
         5      1.
DVCREL1  39      CBAR    39185   W2A
         4      1.
DVCREL1  40      CBAR    39185   W2B
         5      1.
DVCREL1  41      CBAR    39186   W2A
         4      1.
DVCREL1  42      CBAR    39186   W2B
         5      1.
DVCREL1  43      CBAR    39187   W2A
         4      1.
DVCREL1  44      CBAR    39187   W2B
         5      1.
DVCREL1  45      CBAR    39188   W2A
         4      1.
DVCREL1  46      CBAR    39188   W2B
         5      1.
DVCREL1  47      CBAR    39189   W2A
         4      1.
DVCREL1  48      CBAR    39189   W2B
         5      1.
DVCREL1  49      CBAR    39190   W2A
         4      1.
DVCREL1  50      CBAR    39190   W2B
         5      1.
DVCREL1  51      CBAR    39191   W2A
         4      1.
DVCREL1  52      CBAR    39191   W2B
         5      1.
DVCREL1  53      CBAR    39192   W2A
         4      1.
DVCREL1  54      CBAR    39192   W2B
         5      1.
DVCREL1  55      CBAR    39193   W2A
         4      1.
DVCREL1  56      CBAR    39193   W2B
         5      1.
DVCREL1  57      CBAR    39194   W2A
         4      1.
DVCREL1  58      CBAR    39194   W2B
         5      1.
DVCREL1  59      CBAR    39195   W2A
         4      1.
DVCREL1  60      CBAR    39195   W2B
         5      1.
DVCREL1  61      CBAR    39196   W2A
         4      1.
DVCREL1  62      CBAR    39196   W2B
         5      1.
DVCREL1  63      CBAR    39197   W2A
         4      1.
DVCREL1  64      CBAR    39197   W2B
         5      1.
DVCREL1  65      CBAR    39198   W2A
         4      1.
DVCREL1  66      CBAR    39198   W2B
         5      1.
DVCREL1  67      CBAR    39199   W2A
         4      1.
DVCREL1  68      CBAR    39199   W2B
         5      1.
DVCREL1  69      CBAR    39200   W2A
         4      1.
DVCREL1  70      CBAR    39200   W2B
         5      1.
DVCREL1  71      CBAR    39201   W2A
         4      1.
DVCREL1  72      CBAR    39201   W2B
         5      1.
DVCREL1  73      CBAR    39202   W2A
         4      1.
DVCREL1  74      CBAR    39202   W2B
         5      1.
DVCREL1  75      CBAR    39203   W2A
         4      1.
DVCREL1  76      CBAR    39203   W2B
         5      1.
DVCREL1  77      CBAR    39204   W2A
         4      1.
DVCREL1  78      CBAR    39204   W2B
         5      1.
DVCREL1  79      CBAR    39205   W2A
         4      1.
DVCREL1  80      CBAR    39205   W2B
         5      1.
DVCREL1  81      CBAR    39206   W2A
         4      1.
DVCREL1  82      CBAR    39206   W2B
         5      1.
DVCREL1  83      CBAR    39207   W2A
         4      1.
DVCREL1  84      CBAR    39207   W2B
         5      1.
DVCREL1  85      CBAR    39208   W2A
         4      1.
DVCREL1  86      CBAR    39208   W2B
         5      1.
DVCREL1  87      CBAR    39209   W2A
         4      1.
DVCREL1  88      CBAR    39209   W2B
         5      1.
DVCREL1  89      CBAR    39210   W2A
         4      1.
DVCREL1  90      CBAR    39210   W2B
         5      1.
DVCREL1  91      CBAR    39211   W2A
         4      1.
DVCREL1  92      CBAR    39211   W2B
         5      1.
DVCREL1  93      CBAR    39212   W2A
         4      1.
DVCREL1  94      CBAR    39212   W2B
         5      1.
DVCREL1  95      CBAR    39213   W2A
         4      1.
DVCREL1  96      CBAR    39213   W2B
         5      1.
DVCREL1  97      CBAR    39214   W2A
         4      1.
DVCREL1  98      CBAR    39214   W2B
         5      1.
DVCREL1  99      CBAR    39215   W2A
         4      1.
DVCREL1  100     CBAR    39215   W2B
         5      1.
DVCREL1  101     CBAR    39216   W2A
         4      1.
DVCREL1  102     CBAR    39216   W2B
         5      1.
DVCREL1  103     CBAR    39217   W2A
         4      1.
DVCREL1  104     CBAR    39217   W2B
         5      1.
DVCREL1  105     CBAR    39218   W2A
         4      1.
DVCREL1  106     CBAR    39218   W2B
         5      1.
DVCREL1  107     CBAR    39219   W2A
         4      1.
DVCREL1  108     CBAR    39219   W2B
         5      1.
DVCREL1  109     CBAR    39220   W2A
         4      1.
DVCREL1  110     CBAR    39220   W2B
         5      1.
DVCREL1  111     CBAR    39221   W2A
         4      1.
DVCREL1  112     CBAR    39221   W2B
         5      1.
DVCREL1  113     CBAR    39222   W2A
         4      1.
DVCREL1  114     CBAR    39222   W2B
         5      1.
DVCREL1  115     CBAR    39223   W2A
         4      1.
DVCREL1  116     CBAR    39223   W2B
         5      1.
DVCREL1  117     CBAR    39224   W2A
         4      1.
DVCREL1  118     CBAR    39224   W2B
         5      1.
DVCREL1  119     CBAR    39225   W2A
         4      1.
DVCREL1  120     CBAR    39225   W2B
         5      1.
DVCREL1  121     CBAR    39226   W2A
         4      1.
DVCREL1  122     CBAR    39226   W2B
         5      1.
DVCREL1  123     CBAR    39227   W2A
         4      1.
DVCREL1  124     CBAR    39227   W2B
         5      1.
DVCREL1  125     CBAR    39228   W2A
         4      1.
DVCREL1  126     CBAR    39228   W2B
         5      1.
DVCREL1  127     CBAR    39229   W2A
         4      1.
DVCREL1  128     CBAR    39229   W2B
         5      1.
DVCREL1  129     CBAR    39230   W2A
         4      1.
DVCREL1  130     CBAR    39230   W2B
         5      1.
DVCREL1  131     CBAR    39231   W2A
         4      1.
DVCREL1  132     CBAR    39231   W2B
         5      1.
DVCREL1  133     CBAR    39232   W2A
         4      1.
DVCREL1  134     CBAR    39232   W2B
         5      1.
DVCREL1  135     CBAR    39233   W2A
         4      1.
DVCREL1  136     CBAR    39233   W2B
         5      1.
DVCREL1  137     CBAR    39234   W2A
         4      1.
DVCREL1  138     CBAR    39234   W2B
         5      1.
DVCREL1  139     CBAR    39235   W2A
         4      1.
DVCREL1  140     CBAR    39235   W2B
         5      1.
DVCREL1  141     CBAR    39236   W2A
         4      1.
DVCREL1  142     CBAR    39236   W2B
         5      1.
DVCREL1  143     CBAR    39237   W2A
         4      1.
DVCREL1  144     CBAR    39237   W2B
         5      1.
DVCREL1  145     CBAR    39238   W2A
         4      1.
DVCREL1  146     CBAR    39238   W2B
         5      1.
DVCREL1  147     CBAR    39239   W2A
         4      1.
DVCREL1  148     CBAR    39239   W2B
         5      1.
DVCREL1  149     CBAR    39240   W2A
         4      1.
DVCREL1  150     CBAR    39240   W2B
         5      1.
DVCREL1  151     CBAR    39241   W2A
         4      1.
DVCREL1  152     CBAR    39241   W2B
         5      1.
DVCREL1  153     CBAR    39242   W2A
         4      1.
DVCREL1  154     CBAR    39242   W2B
         5      1.
DVCREL1  155     CBAR    39243   W2A
         4      1.
DVCREL1  156     CBAR    39243   W2B
         5      1.
DVCREL1  157     CBAR    39244   W2A
         4      1.
DVCREL1  158     CBAR    39244   W2B
         5      1.
DVCREL1  159     CBAR    39245   W2A
         4      1.
DVCREL1  160     CBAR    39245   W2B
         5      1.
DVCREL1  161     CBAR    39246   W2A
         4      1.
DVCREL1  162     CBAR    39246   W2B
         5      1.
DVCREL1  163     CBAR    39247   W2A
         4      1.
DVCREL1  164     CBAR    39247   W2B
         5      1.
DVCREL1  165     CBAR    39248   W2A
         4      1.
DVCREL1  166     CBAR    39248   W2B
         5      1.
DVCREL1  167     CBAR    39249   W2A
         4      1.
DVCREL1  168     CBAR    39249   W2B
         5      1.
DVCREL1  169     CBAR    39250   W2A
         4      1.
DVCREL1  170     CBAR    39250   W2B
         5      1.
DVCREL1  171     CBAR    39251   W2A
         4      1.
DVCREL1  172     CBAR    39251   W2B
         5      1.
DVCREL1  173     CBAR    39252   W2A
         4      1.
DVCREL1  174     CBAR    39252   W2B
         5      1.
DVCREL1  175     CBAR    39253   W2A
         4      1.
DVCREL1  176     CBAR    39253   W2B
         5      1.
DVCREL1  177     CBAR    39254   W2A
         4      1.
DVCREL1  178     CBAR    39254   W2B
         5      1.
DVCREL1  179     CBAR    39255   W2A
         4      1.
DVCREL1  180     CBAR    39255   W2B
         5      1.
DVCREL1  181     CBAR    39256   W2A
         4      1.
DVCREL1  182     CBAR    39256   W2B
         5      1.
DVCREL1  183     CBAR    39257   W2A
         4      1.
DVCREL1  184     CBAR    39257   W2B
         5      1.
DVCREL1  185     CBAR    39258   W2A
         4      1.
DVCREL1  186     CBAR    39258   W2B
         5      1.
DVCREL1  187     CBAR    39259   W2A
         4      1.
DVCREL1  188     CBAR    39259   W2B
         5      1.
DVCREL1  189     CBAR    39260   W2A
         4      1.
DVCREL1  190     CBAR    39260   W2B
         5      1.
DVCREL1  191     CBAR    39261   W2A
         4      1.
DVCREL1  192     CBAR    39261   W2B
         5      1.
DVCREL1  193     CBAR    39262   W2A
         4      1.
DVCREL1  194     CBAR    39262   W2B
         5      1.
DVCREL1  195     CBAR    39263   W2A
         4      1.
DVCREL1  196     CBAR    39263   W2B
         5      1.
DVCREL1  197     CBAR    39264   W2A
         4      1.
DVCREL1  198     CBAR    39264   W2B
         5      1.
DVCREL1  199     CBAR    39265   W2A
         4      1.
DVCREL1  200     CBAR    39265   W2B
         5      1.
DVCREL1  201     CBAR    39266   W2A
         4      1.
DVCREL1  202     CBAR    39266   W2B
         5      1.
DVCREL1  203     CBAR    39267   W2A
         4      1.
DVCREL1  204     CBAR    39267   W2B
         5      1.
DVCREL1  205     CBAR    39268   W2A
         4      1.
DVCREL1  206     CBAR    39268   W2B
         5      1.
DVCREL1  207     CBAR    39269   W2A
         4      1.
DVCREL1  208     CBAR    39269   W2B
         5      1.
DVCREL1  209     CBAR    39270   W2A
         4      1.
DVCREL1  210     CBAR    39270   W2B
         5      1.
DVCREL1  211     CBAR    39271   W2A
         4      1.
DVCREL1  212     CBAR    39271   W2B
         5      1.
DVCREL1  213     CBAR    39272   W2A
         4      1.
DVCREL1  214     CBAR    39272   W2B
         5      1.
DVCREL1  215     CBAR    39273   W2A
         4      1.
DVCREL1  216     CBAR    39273   W2B
         5      1.
DVCREL1  217     CBAR    39274   W2A
         4      1.
DVCREL1  218     CBAR    39274   W2B
         5      1.
DVCREL1  219     CBAR    39275   W2A
         4      1.
DVCREL1  220     CBAR    39275   W2B
         5      1.
DVCREL1  221     CBAR    39276   W2A
         4      1.
DVCREL1  222     CBAR    39276   W2B
         5      1.
DVCREL1  223     CBAR    39277   W2A
         4      1.
DVCREL1  224     CBAR    39277   W2B
         5      1.
DVCREL1  225     CBAR    39278   W2A
         4      1.
DVCREL1  226     CBAR    39278   W2B
         5      1.
DVCREL1  227     CBAR    39279   W2A
         4      1.
DVCREL1  228     CBAR    39279   W2B
         5      1.
DVCREL1  229     CBAR    39280   W2A
         4      1.
DVCREL1  230     CBAR    39280   W2B
         5      1.
DVCREL1  231     CBAR    39281   W2A
         4      1.
DVCREL1  232     CBAR    39281   W2B
         5      1.
DVCREL1  233     CBAR    39282   W2A
         4      1.
DVCREL1  234     CBAR    39282   W2B
         5      1.
DVCREL1  235     CBAR    39283   W2A
         4      1.
DVCREL1  236     CBAR    39283   W2B
         5      1.
DVCREL1  237     CBAR    39284   W2A
         4      1.
DVCREL1  238     CBAR    39284   W2B
         5      1.
DVCREL1  239     CBAR    39285   W2A
         4      1.
DVCREL1  240     CBAR    39285   W2B
         5      1.
DVCREL1  241     CBAR    39286   W2A
         4      1.
DVCREL1  242     CBAR    39286   W2B
         5      1.
DVCREL1  243     CBAR    39287   W2A
         4      1.
DVCREL1  244     CBAR    39287   W2B
         5      1.
DVCREL1  245     CBAR    39288   W2A
         4      1.
DVCREL1  246     CBAR    39288   W2B
         5      1.
DVCREL1  247     CBAR    39289   W2A
         4      1.
DVCREL1  248     CBAR    39289   W2B
         5      1.
DVCREL1  249     CBAR    39290   W2A
         4      1.
DVCREL1  250     CBAR    39290   W2B
         5      1.
DVCREL1  251     CBAR    39291   W2A
         4      1.
DVCREL1  252     CBAR    39291   W2B
         5      1.
DVCREL1  253     CBAR    39292   W2A
         4      1.
DVCREL1  254     CBAR    39292   W2B
         5      1.
DVCREL1  255     CBAR    39293   W2A
         4      1.
DVCREL1  256     CBAR    39293   W2B
         5      1.
DVCREL1  257     CBAR    39294   W2A
         4      1.
DVCREL1  258     CBAR    39294   W2B
         5      1.
DVCREL1  259     CBAR    39295   W2A
         4      1.
DVCREL1  260     CBAR    39295   W2B
         5      1.
DVCREL1  261     CBAR    39296   W2A
         4      1.
DVCREL1  262     CBAR    39296   W2B
         5      1.
DVCREL1  263     CBAR    39297   W2A
         4      1.
DVCREL1  264     CBAR    39297   W2B
         5      1.
DVCREL1  265     CBAR    39298   W2A
         4      1.
DVCREL1  266     CBAR    39298   W2B
         5      1.
DVCREL1  267     CBAR    39299   W2A
         4      1.
DVCREL1  268     CBAR    39299   W2B
         5      1.
DVCREL1  269     CBAR    39300   W2A
         4      1.
DVCREL1  270     CBAR    39300   W2B
         5      1.
DVCREL1  271     CBAR    39301   W2A
         4      1.
DVCREL1  272     CBAR    39301   W2B
         5      1.
DVCREL1  273     CBAR    39302   W2A
         4      1.
DVCREL1  274     CBAR    39302   W2B
         5      1.
DVCREL1  275     CBAR    39303   W2A
         4      1.
DVCREL1  276     CBAR    39303   W2B
         5      1.
DVCREL1  277     CBAR    39304   W2A
         4      1.
DVCREL1  278     CBAR    39304   W2B
         5      1.
DVCREL1  279     CBAR    39305   W2A
         4      1.
DVCREL1  280     CBAR    39305   W2B
         5      1.
DVCREL1  281     CBAR    39306   W2A
         4      1.
DVCREL1  282     CBAR    39306   W2B
         5      1.
DVCREL1  283     CBAR    39307   W2A
         4      1.
DVCREL1  284     CBAR    39307   W2B
         5      1.
DVCREL1  285     CBAR    39308   W2A
         4      1.
DVCREL1  286     CBAR    39308   W2B
         5      1.
DVCREL1  287     CBAR    39309   W2A
         4      1.
DVCREL1  288     CBAR    39309   W2B
         5      1.
DVCREL1  289     CBAR    39310   W2A
         4      1.
DVCREL1  290     CBAR    39310   W2B
         5      1.
DVCREL1  291     CBAR    39311   W2A
         4      1.
DVCREL1  292     CBAR    39311   W2B
         5      1.
DVCREL1  293     CBAR    39312   W2A
         4      1.
DVCREL1  294     CBAR    39312   W2B
         5      1.
DVCREL1  295     CBAR    39313   W2A
         4      1.
DVCREL1  296     CBAR    39313   W2B
         5      1.
DVCREL1  297     CBAR    39314   W2A
         4      1.
DVCREL1  298     CBAR    39314   W2B
         5      1.
DVCREL1  299     CBAR    39315   W2A
         4      1.
DVCREL1  300     CBAR    39315   W2B
         5      1.
DVCREL1  301     CBAR    39316   W2A
         4      1.
DVCREL1  302     CBAR    39316   W2B
         5      1.
DVCREL1  303     CBAR    39317   W2A
         4      1.
DVCREL1  304     CBAR    39317   W2B
         5      1.
DVCREL1  305     CBAR    39318   W2A
         4      1.
DVCREL1  306     CBAR    39318   W2B
         5      1.
DVCREL1  307     CBAR    39319   W2A
         4      1.
DVCREL1  308     CBAR    39319   W2B
         5      1.
DVCREL1  309     CBAR    39320   W2A
         4      1.
DVCREL1  310     CBAR    39320   W2B
         5      1.
DVCREL1  311     CBAR    39321   W2A
         4      1.
DVCREL1  312     CBAR    39321   W2B
         5      1.
DVCREL1  313     CBAR    39322   W2A
         4      1.
DVCREL1  314     CBAR    39322   W2B
         5      1.
DVCREL1  315     CBAR    39323   W2A
         4      1.
DVCREL1  316     CBAR    39323   W2B
         5      1.
DVCREL1  317     CBAR    39324   W2A
         4      1.
DVCREL1  318     CBAR    39324   W2B
         5      1.
DVCREL1  319     CBAR    39325   W2A
         4      1.
DVCREL1  320     CBAR    39325   W2B
         5      1.
DVCREL1  321     CBAR    39326   W2A
         4      1.
DVCREL1  322     CBAR    39326   W2B
         5      1.
DVCREL1  323     CBAR    39327   W2A
         4      1.
DVCREL1  324     CBAR    39327   W2B
         5      1.
DVCREL1  325     CBAR    39328   W2A
         4      1.
DVCREL1  326     CBAR    39328   W2B
         5      1.
DVCREL1  327     CBAR    39329   W2A
         4      1.
DVCREL1  328     CBAR    39329   W2B
         5      1.
DVCREL1  329     CBAR    39330   W2A
         4      1.
DVCREL1  330     CBAR    39330   W2B
         5      1.
DVCREL1  331     CBAR    39331   W2A
         4      1.
DVCREL1  332     CBAR    39331   W2B
         5      1.
DVCREL1  333     CBAR    39332   W2A
         4      1.
DVCREL1  334     CBAR    39332   W2B
         5      1.
DVCREL1  335     CBAR    39333   W2A
         4      1.
DVCREL1  336     CBAR    39333   W2B
         5      1.
DVCREL1  337     CBAR    39334   W2A
         4      1.
DVCREL1  338     CBAR    39334   W2B
         5      1.
DVCREL1  339     CBAR    39335   W2A
         4      1.
DVCREL1  340     CBAR    39335   W2B
         5      1.
DVCREL1  341     CBAR    39336   W2A
         4      1.
DVCREL1  342     CBAR    39336   W2B
         5      1.
DVCREL1  343     CBAR    39337   W2A
         4      1.
DVCREL1  344     CBAR    39337   W2B
         5      1.
DVCREL1  345     CBAR    39338   W2A
         4      1.
DVCREL1  346     CBAR    39338   W2B
         5      1.
DVCREL1  347     CBAR    39339   W2A
         4      1.
DVCREL1  348     CBAR    39339   W2B
         5      1.
DVCREL1  349     CBAR    39340   W2A
         4      1.
DVCREL1  350     CBAR    39340   W2B
         5      1.
DVCREL1  351     CBAR    39341   W2A
         4      1.
DVCREL1  352     CBAR    39341   W2B
         5      1.
DVCREL1  353     CBAR    39342   W2A
         4      1.
DVCREL1  354     CBAR    39342   W2B
         5      1.
DVCREL1  355     CBAR    39343   W2A
         4      1.
DVCREL1  356     CBAR    39343   W2B
         5      1.
DVCREL1  357     CBAR    39344   W2A
         4      1.
DVCREL1  358     CBAR    39344   W2B
         5      1.
DVCREL1  359     CBAR    39345   W2A
         4      1.
DVCREL1  360     CBAR    39345   W2B
         5      1.
DVCREL1  361     CBAR    39346   W2A
         4      1.
DVCREL1  362     CBAR    39346   W2B
         5      1.
DVCREL1  363     CBAR    39347   W2A
         4      1.
DVCREL1  364     CBAR    39347   W2B
         5      1.
DVCREL1  365     CBAR    39348   W2A
         4      1.
DVCREL1  366     CBAR    39348   W2B
         5      1.
DVCREL1  367     CBAR    39349   W2A
         4      1.
DVCREL1  368     CBAR    39349   W2B
         5      1.
DVCREL1  369     CBAR    39350   W2A
         4      1.
DVCREL1  370     CBAR    39350   W2B
         5      1.
DVCREL1  371     CBAR    39351   W2A
         4      1.
DVCREL1  372     CBAR    39351   W2B
         5      1.
DVCREL1  373     CBAR    39352   W2A
         4      1.
DVCREL1  374     CBAR    39352   W2B
         5      1.
DVCREL1  375     CBAR    39353   W2A
         4      1.
DVCREL1  376     CBAR    39353   W2B
         5      1.
DVCREL1  377     CBAR    39354   W2A
         4      1.
DVCREL1  378     CBAR    39354   W2B
         5      1.
DVCREL1  379     CBAR    39355   W2A
         4      1.
DVCREL1  380     CBAR    39355   W2B
         5      1.
DVCREL1  381     CBAR    39356   W2A
         4      1.
DVCREL1  382     CBAR    39356   W2B
         5      1.
DVCREL1  383     CBAR    39357   W2A
         4      1.
DVCREL1  384     CBAR    39357   W2B
         5      1.
DVCREL1  385     CBAR    39358   W2A
         4      1.
DVCREL1  386     CBAR    39358   W2B
         5      1.
DVCREL1  387     CBAR    39359   W2A
         4      1.
DVCREL1  388     CBAR    39359   W2B
         5      1.
DVCREL1  389     CBAR    39360   W2A
         4      1.
DVCREL1  390     CBAR    39360   W2B
         5      1.
DVCREL1  391     CBAR    39361   W2A
         4      1.
DVCREL1  392     CBAR    39361   W2B
         5      1.
DVCREL1  393     CBAR    39362   W2A
         4      1.
DVCREL1  394     CBAR    39362   W2B
         5      1.
DVCREL1  395     CBAR    39363   W2A
         4      1.
DVCREL1  396     CBAR    39363   W2B
         5      1.
DVCREL1  397     CBAR    39364   W2A
         4      1.
DVCREL1  398     CBAR    39364   W2B
         5      1.
DVCREL1  399     CBAR    39365   W2A
         4      1.
DVCREL1  400     CBAR    39365   W2B
         5      1.
DVCREL1  401     CBAR    39366   W2A
         4      1.
DVCREL1  402     CBAR    39366   W2B
         5      1.
DVCREL1  403     CBAR    39367   W2A
         4      1.
DVCREL1  404     CBAR    39367   W2B
         5      1.
DVCREL1  405     CBAR    39368   W2A
         4      1.
DVCREL1  406     CBAR    39368   W2B
         5      1.
DVCREL1  407     CBAR    39369   W2A
         4      1.
DVCREL1  408     CBAR    39369   W2B
         5      1.
DVCREL1  409     CBAR    39370   W2A
         4      1.
DVCREL1  410     CBAR    39370   W2B
         5      1.
DVCREL1  411     CBAR    39371   W2A
         4      1.
DVCREL1  412     CBAR    39371   W2B
         5      1.
DVCREL1  413     CBAR    39372   W2A
         4      1.
DVCREL1  414     CBAR    39372   W2B
         5      1.
DVCREL1  415     CBAR    39373   W2A
         4      1.
DVCREL1  416     CBAR    39373   W2B
         5      1.
DVCREL1  417     CBAR    39374   W2A
         4      1.
DVCREL1  418     CBAR    39374   W2B
         5      1.
DVCREL1  419     CBAR    39375   W2A
         4      1.
DVCREL1  420     CBAR    39375   W2B
         5      1.
DVCREL1  421     CBAR    39376   W2A
         4      1.
DVCREL1  422     CBAR    39376   W2B
         5      1.
DVCREL1  423     CBAR    39377   W2A
         4      1.
DVCREL1  424     CBAR    39377   W2B
         5      1.
DVCREL1  425     CBAR    39378   W2A
         4      1.
DVCREL1  426     CBAR    39378   W2B
         5      1.
DVCREL1  427     CBAR    39379   W2A
         4      1.
DVCREL1  428     CBAR    39379   W2B
         5      1.
DVCREL1  429     CBAR    39380   W2A
         4      1.
DVCREL1  430     CBAR    39380   W2B
         5      1.
DVCREL1  431     CBAR    39381   W2A
         4      1.
DVCREL1  432     CBAR    39381   W2B
         5      1.
DVCREL1  433     CBAR    39382   W2A
         4      1.
DVCREL1  434     CBAR    39382   W2B
         5      1.
DVCREL1  435     CBAR    39383   W2A
         4      1.
DVCREL1  436     CBAR    39383   W2B
         5      1.
DVCREL1  437     CBAR    39384   W2A
         4      1.
DVCREL1  438     CBAR    39384   W2B
         5      1.
DVCREL1  439     CBAR    39385   W2A
         4      1.
DVCREL1  440     CBAR    39385   W2B
         5      1.
DVCREL1  441     CBAR    39386   W2A
         4      1.
DVCREL1  442     CBAR    39386   W2B
         5      1.
DVCREL1  443     CBAR    39387   W2A
         4      1.
DVCREL1  444     CBAR    39387   W2B
         5      1.
DVCREL1  445     CBAR    39388   W2A
         4      1.
DVCREL1  446     CBAR    39388   W2B
         5      1.
DVCREL1  447     CBAR    39389   W2A
         4      1.
DVCREL1  448     CBAR    39389   W2B
         5      1.
DVCREL1  449     CBAR    39390   W2A
         4      1.
DVCREL1  450     CBAR    39390   W2B
         5      1.
DVCREL1  451     CBAR    39391   W2A
         4      1.
DVCREL1  452     CBAR    39391   W2B
         5      1.
DVCREL1  453     CBAR    39392   W2A
         4      1.
DVCREL1  454     CBAR    39392   W2B
         5      1.
DVCREL1  455     CBAR    39393   W2A
         4      1.
DVCREL1  456     CBAR    39393   W2B
         5      1.
DVCREL1  457     CBAR    39394   W2A
         4      1.
DVCREL1  458     CBAR    39394   W2B
         5      1.
DVCREL1  459     CBAR    39395   W2A
         4      1.
DVCREL1  460     CBAR    39395   W2B
         5      1.
DVCREL1  461     CBAR    39396   W2A
         4      1.
DVCREL1  462     CBAR    39396   W2B
         5      1.
DVCREL1  463     CBAR    39397   W2A
         4      1.
DVCREL1  464     CBAR    39397   W2B
         5      1.
DVCREL1  465     CBAR    39398   W2A
         4      1.
DVCREL1  466     CBAR    39398   W2B
         5      1.
DVCREL1  467     CBAR    39399   W2A
         4      1.
DVCREL1  468     CBAR    39399   W2B
         5      1.
DVCREL1  469     CBAR    39400   W2A
         4      1.
DVCREL1  470     CBAR    39400   W2B
         5      1.
DVCREL1  471     CBAR    39401   W2A
         4      1.
DVCREL1  472     CBAR    39401   W2B
         5      1.
DVCREL1  473     CBAR    39402   W2A
         4      1.
DVCREL1  474     CBAR    39402   W2B
         5      1.
DVCREL1  475     CBAR    39403   W2A
         4      1.
DVCREL1  476     CBAR    39403   W2B
         5      1.
DVCREL1  477     CBAR    39404   W2A
         4      1.
DVCREL1  478     CBAR    39404   W2B
         5      1.
DVCREL1  479     CBAR    39405   W2A
         4      1.
DVCREL1  480     CBAR    39405   W2B
         5      1.
DVCREL1  481     CBAR    39406   W2A
         4      1.
DVCREL1  482     CBAR    39406   W2B
         5      1.
DVCREL1  483     CBAR    39407   W2A
         4      1.
DVCREL1  484     CBAR    39407   W2B
         5      1.
DVCREL1  485     CBAR    39408   W2A
         4      1.
DVCREL1  486     CBAR    39408   W2B
         5      1.
DVCREL1  487     CBAR    39409   W2A
         4      1.
DVCREL1  488     CBAR    39409   W2B
         5      1.
DVCREL1  489     CBAR    39410   W2A
         4      1.
DVCREL1  490     CBAR    39410   W2B
         5      1.
DVCREL1  491     CBAR    39411   W2A
         4      1.
DVCREL1  492     CBAR    39411   W2B
         5      1.
DVCREL1  493     CBAR    39412   W2A
         4      1.
DVCREL1  494     CBAR    39412   W2B
         5      1.
DVCREL1  495     CBAR    39413   W2A
         4      1.
DVCREL1  496     CBAR    39413   W2B
         5      1.
DVCREL1  497     CBAR    39414   W2A
         4      1.
DVCREL1  498     CBAR    39414   W2B
         5      1.
$ ...DESIGN VARIABLE LINK DEFINITION
$ re1
DLINK    1       4       0.     1.       1      -.5      3      -.5
$ re2
DLINK    2       5       0.     1.       1      -.5      3      -.5
$ ...STRUCTURAL RESPONSE IDENTIFICATION
DRESP1   1       weight  WEIGHT
$ DCONADD22
DCONADD  22      2       3
$ DCONADD23
DCONADD  23      1
$ buckle
DRESP1   2       LAMA2   LAMA                    1
$ stress
DRESP1   3       STR3    STRESS  PSHELL          9               2
DRESP1   4       STR4    STRESS  PSHELL          17              2
DRESP2   5       MAX5    1
         DRESP1  3       4
DEQATN  1       MAXSTR ( STR3 , STR4 ) = MAX ( STR3 , STR4 )
$ strStiff
DRESP1   6       STR6    STRESS  PBAR            7               1
$ ...CONSTRAINTS
DCONSTR  1       2      1.
DCONSTR* 2               5              -4.2747+8       4.2747+8
*
DCONSTR* 3               6              -4.2747+8       4.2747+8
*
$ ...OPTIMIZATION CONTROL
DOPTPRM  DESMAX  25      FSDMAX  0       P1      0       P2      1
         METHOD  1       OPTCOD  MSCADS  CONV1  .001     CONV2  1.-20
         CONVDV .001     CONVPR .01      DELP   .2       DELX   5.-4
         DPMIN  .01      DXMIN  5.-4     CT     -.03     GMAX   .005
         CTMIN  .003
$ Referenced Coordinate Frames
ENDDATA 9744aba6
